Circuit: * C:\users\yura\My Documents\robot-dream\memristors\LTSPICE\Memristor_test\Memristor_test.asc

WARNING: Node NC_01 is floating.
WARNING: Node NC_02 is floating.

Direct Newton iteration for .op point succeeded.

Date: Wed Jun 07 16:41:29 2017
Total elapsed time: 0.537 seconds.

tnom = 27
temp = 27
method = modified trap
totiter = 52353
traniter = 52350
tranpoints = 25474
accept = 23949
rejected = 1525
matrix size = 9
fillins = 0
solver = Normal
Matrix Compiler1: 224 bytes object code size  0.5/0.4/[0.3]
Matrix Compiler2: 571 bytes object code size  0.4/0.5/[0.3]

