Circuit: * C:\users\yura\My Documents\robot-dream\memristors\LTSPICE\Memristor_test\Memristor_test.asc

WARNING: Node NC_01 is floating.
WARNING: Node NC_02 is floating.

Direct Newton iteration for .op point succeeded.

Date: Wed Jun 07 13:41:12 2017
Total elapsed time: 6.485 seconds.

tnom = 27
temp = 27
method = modified trap
totiter = 175509
traniter = 175506
tranpoints = 54560
accept = 46290
rejected = 8270
matrix size = 9
fillins = 0
solver = Normal
Matrix Compiler1: 224 bytes object code size  0.7/0.6/[0.5]
Matrix Compiler2: off  [0.5]/3.5/1.2

