Circuit: * C:\users\yura\My Documents\robot-dream\memristors\LTSPICE\Main_sch.asc

C6: Increased Cpar to 1e-013
C4: Increased Cpar to 6.8e-015
C3: Increased Cpar to 6.8e-015
C1: Increased Cpar to 1e-013
Direct Newton iteration for .op point succeeded.

Date: Thu May 25 18:59:59 2017
Total elapsed time: 6.127 seconds.

tnom = 27
temp = 27
method = modified trap
totiter = 284674
traniter = 284638
tranpoints = 97872
accept = 75938
rejected = 21934
matrix size = 45
fillins = 27
solver = Normal
Matrix Compiler1: 3.67 KB object code size  3.8/1.5/[0.7]
Matrix Compiler2: 5.00 KB object code size  1.7/1.8/[1.0]

