Circuit: * C:\users\yura\My Documents\robot-dream\memristors\LTSPICE\Main_sch.asc

C2: Increased Cpar to 1e-014
C1: Increased Cpar to 1e-013
WARNING: Node NC_01 is floating.
WARNING: Node NC_02 is floating.

Direct Newton iteration for .op point succeeded.

Date: Fri May 19 17:18:49 2017
Total elapsed time: 5.162 seconds.

tnom = 27
temp = 27
method = modified trap
totiter = 555952
traniter = 555937
tranpoints = 194641
accept = 150360
rejected = 44281
matrix size = 20
fillins = 1
solver = Normal
Matrix Compiler1: 692 bytes object code size  1.1/0.6/[0.5]
Matrix Compiler2: 1.52 KB object code size  0.8/1.3/[0.7]

