Circuit: * C:\users\yura\My Documents\robot-dream\memristors\LTSPICE\Main_sch.asc

C4: Increased Cpar to 6.8e-015
C3: Increased Cpar to 6.8e-015
C1: Increased Cpar to 1e-013
Direct Newton iteration for .op point succeeded.
Heightened Def Con from 0.377746 to 0.377746

Date: Thu May 25 16:40:26 2017
Total elapsed time: 2.643 seconds.

tnom = 27
temp = 27
method = modified trap
totiter = 179348
traniter = 179303
tranpoints = 72150
accept = 56569
rejected = 15582
matrix size = 29
fillins = 12
solver = Normal
Matrix Compiler1: 1.90 KB object code size  2.2/0.9/[0.5]
Matrix Compiler2: 2.95 KB object code size  1.1/1.5/[0.9]

