Circuit: * C:\Users\yurra\Documents\robot-dream\memristors\LTSPICE\Main_sch.asc

C2: Increased Cpar to 1e-014
C1: Increased Cpar to 1e-013
Direct Newton iteration for .op point succeeded.

Date: Thu May 18 17:57:10 2017
Total elapsed time: 0.491 seconds.

tnom = 27
temp = 27
method = modified trap
totiter = 76396
traniter = 76381
tranpoints = 31206
accept = 24949
rejected = 6257
matrix size = 13
fillins = 1
solver = Normal
Matrix Compiler1: 612 bytes object code size  0.2/0.2/[0.0]
Matrix Compiler2: off  [0.2]/0.4/0.4

